384
Lattice="20.17799910793932 0.0 0.0 10.08899955396966 17.474659825015195 0.0 0.0 0.0 44.198048819842896" Properties=species:S:1:pos:R:3:tags:I:1 pbc="T T F"
F        1.26112494       0.72811083      14.11881682       10
C        1.26112494       0.72811083      15.66337313       10
C        1.26112494       2.18433248      16.17822523        9
C        1.26112494       2.18433248      17.72278154        9
C        2.52224989       1.45622165      18.23763364        8
F        2.52224989       1.45622165      19.78218995        8
F        2.52224989       2.91244330      14.11881682       10
C        2.52224989       2.91244330      15.66337313       10
C        2.52224989       4.36866496      16.17822523        9
C        2.52224989       4.36866496      17.72278154        9
C        3.78337483       3.64055413      18.23763364        8
F        3.78337483       3.64055413      19.78218995        8
F        3.78337483       5.09677578      14.11881682       10
C        3.78337483       5.09677578      15.66337313       10
C        3.78337483       6.55299743      16.17822523        9
C        3.78337483       6.55299743      17.72278154        9
C        5.04449978       5.82488661      18.23763364        8
F        5.04449978       5.82488661      19.78218995        8
F        5.04449978       7.28110826      14.11881682       10
C        5.04449978       7.28110826      15.66337313       10
C        5.04449978       8.73732991      16.17822523        9
C        5.04449978       8.73732991      17.72278154        9
C        6.30562472       8.00921909      18.23763364        8
F        6.30562472       8.00921909      19.78218995        8
F        3.78337483       0.72811083      14.11881682       10
C        3.78337483       0.72811083      15.66337313       10
C        3.78337483       2.18433248      16.17822523        9
C        3.78337483       2.18433248      17.72278154        9
C        5.04449978       1.45622165      18.23763364        8
F        5.04449978       1.45622165      19.78218995        8
F        5.04449978       2.91244330      14.11881682       10
C        5.04449978       2.91244330      15.66337313       10
C        5.04449978       4.36866496      16.17822523        9
C        5.04449978       4.36866496      17.72278154        9
C        6.30562472       3.64055413      18.23763364        8
F        6.30562472       3.64055413      19.78218995        8
F        6.30562472       5.09677578      14.11881682       10
C        6.30562472       5.09677578      15.66337313       10
C        6.30562472       6.55299743      16.17822523        9
C        6.30562472       6.55299743      17.72278154        9
C        7.56674967       5.82488661      18.23763364        8
F        7.56674967       5.82488661      19.78218995        8
F        7.56674967       7.28110826      14.11881682       10
C        7.56674967       7.28110826      15.66337313       10
C        7.56674967       8.73732991      16.17822523        9
C        7.56674967       8.73732991      17.72278154        9
C        8.82787461       8.00921909      18.23763364        8
F        8.82787461       8.00921909      19.78218995        8
F        6.30562472       0.72811083      14.11881682       10
C        6.30562472       0.72811083      15.66337313       10
C        6.30562472       2.18433248      16.17822523        9
C        6.30562472       2.18433248      17.72278154        9
C        7.56674967       1.45622165      18.23763364        8
F        7.56674967       1.45622165      19.78218995        8
F        7.56674967       2.91244330      14.11881682       10
C        7.56674967       2.91244330      15.66337313       10
C        7.56674967       4.36866496      16.17822523        9
C        7.56674967       4.36866496      17.72278154        9
C        8.82787461       3.64055413      18.23763364        8
F        8.82787461       3.64055413      19.78218995        8
F        8.82787461       5.09677578      14.11881682       10
C        8.82787461       5.09677578      15.66337313       10
C        8.82787461       6.55299743      16.17822523        9
C        8.82787461       6.55299743      17.72278154        9
C       10.08899955       5.82488661      18.23763364        8
F       10.08899955       5.82488661      19.78218995        8
F       10.08899955       7.28110826      14.11881682       10
C       10.08899955       7.28110826      15.66337313       10
C       10.08899955       8.73732991      16.17822523        9
C       10.08899955       8.73732991      17.72278154        9
C       11.35012450       8.00921909      18.23763364        8
F       11.35012450       8.00921909      19.78218995        8
F        8.82787461       0.72811083      14.11881682       10
C        8.82787461       0.72811083      15.66337313       10
C        8.82787461       2.18433248      16.17822523        9
C        8.82787461       2.18433248      17.72278154        9
C       10.08899955       1.45622165      18.23763364        8
F       10.08899955       1.45622165      19.78218995        8
F       10.08899955       2.91244330      14.11881682       10
C       10.08899955       2.91244330      15.66337313       10
C       10.08899955       4.36866496      16.17822523        9
C       10.08899955       4.36866496      17.72278154        9
C       11.35012450       3.64055413      18.23763364        8
F       11.35012450       3.64055413      19.78218995        8
F       11.35012450       5.09677578      14.11881682       10
C       11.35012450       5.09677578      15.66337313       10
C       11.35012450       6.55299743      16.17822523        9
C       11.35012450       6.55299743      17.72278154        9
C       12.61124944       5.82488661      18.23763364        8
F       12.61124944       5.82488661      19.78218995        8
F       12.61124944       7.28110826      14.11881682       10
C       12.61124944       7.28110826      15.66337313       10
C       12.61124944       8.73732991      16.17822523        9
C       12.61124944       8.73732991      17.72278154        9
C       13.87237439       8.00921909      18.23763364        8
F       13.87237439       8.00921909      19.78218995        8
F        6.30562472       9.46544074      14.11881682       10
C        6.30562472       9.46544074      15.66337313       10
C        6.30562472      10.92166239      16.17822523        9
C        6.30562472      10.92166239      17.72278154        9
C        7.56674967      10.19355156      18.23763364        8
F        7.56674967      10.19355156      19.78218995        8
F        7.56674967      11.64977321      14.11881682       10
C        7.56674967      11.64977321      15.66337313       10
C        7.56674967      13.10599487      16.17822523        9
C        7.56674967      13.10599487      17.72278154        9
C        8.82787461      12.37788404      18.23763364        8
F        8.82787461      12.37788404      19.78218995        8
F        8.82787461      13.83410569      14.11881682       10
C        8.82787461      13.83410569      15.66337313       10
C        8.82787461      15.29032734      16.17822523        9
C        8.82787461      15.29032734      17.72278154        9
C       10.08899956      14.56221652      18.23763364        8
F       10.08899956      14.56221652      19.78218995        8
F       10.08899956      16.01843817      14.11881682       10
C       10.08899956      16.01843817      15.66337313       10
C       10.08899956      17.47465982      16.17822523        9
C       10.08899956      17.47465982      17.72278154        9
C       11.35012450      16.74654900      18.23763364        8
F       11.35012450      16.74654900      19.78218995        8
F        8.82787461       9.46544074      14.11881682       10
C        8.82787461       9.46544074      15.66337313       10
C        8.82787461      10.92166239      16.17822523        9
C        8.82787461      10.92166239      17.72278154        9
C       10.08899956      10.19355156      18.23763364        8
F       10.08899956      10.19355156      19.78218995        8
F       10.08899956      11.64977321      14.11881682       10
C       10.08899956      11.64977321      15.66337313       10
C       10.08899956      13.10599487      16.17822523        9
C       10.08899956      13.10599487      17.72278154        9
C       11.35012450      12.37788404      18.23763364        8
F       11.35012450      12.37788404      19.78218995        8
F       11.35012450      13.83410569      14.11881682       10
C       11.35012450      13.83410569      15.66337313       10
C       11.35012450      15.29032734      16.17822523        9
C       11.35012450      15.29032734      17.72278154        9
C       12.61124945      14.56221652      18.23763364        8
F       12.61124945      14.56221652      19.78218995        8
F       12.61124945      16.01843817      14.11881682       10
C       12.61124945      16.01843817      15.66337313       10
C       12.61124945      17.47465982      16.17822523        9
C       12.61124945      17.47465982      17.72278154        9
C       13.87237439      16.74654900      18.23763364        8
F       13.87237439      16.74654900      19.78218995        8
F       11.35012450       9.46544074      14.11881682       10
C       11.35012450       9.46544074      15.66337313       10
C       11.35012450      10.92166239      16.17822523        9
C       11.35012450      10.92166239      17.72278154        9
C       12.61124945      10.19355156      18.23763364        8
F       12.61124945      10.19355156      19.78218995        8
F       12.61124945      11.64977321      14.11881682       10
C       12.61124945      11.64977321      15.66337313       10
C       12.61124945      13.10599487      16.17822523        9
C       12.61124945      13.10599487      17.72278154        9
C       13.87237439      12.37788404      18.23763364        8
F       13.87237439      12.37788404      19.78218995        8
F       13.87237439      13.83410569      14.11881682       10
C       13.87237439      13.83410569      15.66337313       10
C       13.87237439      15.29032734      16.17822523        9
C       13.87237439      15.29032734      17.72278154        9
C       15.13349933      14.56221652      18.23763364        8
F       15.13349933      14.56221652      19.78218995        8
F       15.13349933      16.01843817      14.11881682       10
C       15.13349933      16.01843817      15.66337313       10
C       15.13349933      17.47465982      16.17822523        9
C       15.13349933      17.47465982      17.72278154        9
C       16.39462428      16.74654900      18.23763364        8
F       16.39462428      16.74654900      19.78218995        8
F       13.87237439       9.46544074      14.11881682       10
C       13.87237439       9.46544074      15.66337313       10
C       13.87237439      10.92166239      16.17822523        9
C       13.87237439      10.92166239      17.72278154        9
C       15.13349933      10.19355156      18.23763364        8
F       15.13349933      10.19355156      19.78218995        8
F       15.13349933      11.64977321      14.11881682       10
C       15.13349933      11.64977321      15.66337313       10
C       15.13349933      13.10599487      16.17822523        9
C       15.13349933      13.10599487      17.72278154        9
C       16.39462428      12.37788404      18.23763364        8
F       16.39462428      12.37788404      19.78218995        8
F       16.39462428      13.83410569      14.11881682       10
C       16.39462428      13.83410569      15.66337313       10
C       16.39462428      15.29032734      16.17822523        9
C       16.39462428      15.29032734      17.72278154        9
C       17.65574922      14.56221652      18.23763364        8
F       17.65574922      14.56221652      19.78218995        8
F       17.65574922      16.01843817      14.11881682       10
C       17.65574922      16.01843817      15.66337313       10
C       17.65574922      17.47465982      16.17822523        9
C       17.65574922      17.47465982      17.72278154        9
C       18.91687417      16.74654900      18.23763364        8
F       18.91687417      16.74654900      19.78218995        8
F       11.35012449       0.72811083      14.11881682       10
C       11.35012449       0.72811083      15.66337313       10
C       11.35012449       2.18433248      16.17822523        9
C       11.35012449       2.18433248      17.72278154        9
C       12.61124944       1.45622165      18.23763364        8
F       12.61124944       1.45622165      19.78218995        8
F       12.61124944       2.91244330      14.11881682       10
C       12.61124944       2.91244330      15.66337313       10
C       12.61124944       4.36866496      16.17822523        9
C       12.61124944       4.36866496      17.72278154        9
C       13.87237438       3.64055413      18.23763364        8
F       13.87237438       3.64055413      19.78218995        8
F       13.87237438       5.09677578      14.11881682       10
C       13.87237438       5.09677578      15.66337313       10
C       13.87237438       6.55299743      16.17822523        9
C       13.87237438       6.55299743      17.72278154        9
C       15.13349933       5.82488661      18.23763364        8
F       15.13349933       5.82488661      19.78218995        8
F       15.13349933       7.28110826      14.11881682       10
C       15.13349933       7.28110826      15.66337313       10
C       15.13349933       8.73732991      16.17822523        9
C       15.13349933       8.73732991      17.72278154        9
C       16.39462427       8.00921909      18.23763364        8
F       16.39462427       8.00921909      19.78218995        8
F       13.87237438       0.72811083      14.11881682       10
C       13.87237438       0.72811083      15.66337313       10
C       13.87237438       2.18433248      16.17822523        9
C       13.87237438       2.18433248      17.72278154        9
C       15.13349933       1.45622165      18.23763364        8
F       15.13349933       1.45622165      19.78218995        8
F       15.13349933       2.91244330      14.11881682       10
C       15.13349933       2.91244330      15.66337313       10
C       15.13349933       4.36866496      16.17822523        9
C       15.13349933       4.36866496      17.72278154        9
C       16.39462427       3.64055413      18.23763364        8
F       16.39462427       3.64055413      19.78218995        8
F       16.39462427       5.09677578      14.11881682       10
C       16.39462427       5.09677578      15.66337313       10
C       16.39462427       6.55299743      16.17822523        9
C       16.39462427       6.55299743      17.72278154        9
C       17.65574922       5.82488661      18.23763364        8
F       17.65574922       5.82488661      19.78218995        8
F       17.65574922       7.28110826      14.11881682       10
C       17.65574922       7.28110826      15.66337313       10
C       17.65574922       8.73732991      16.17822523        9
C       17.65574922       8.73732991      17.72278154        9
C       18.91687416       8.00921909      18.23763364        8
F       18.91687416       8.00921909      19.78218995        8
F       16.39462427       0.72811083      14.11881682       10
C       16.39462427       0.72811083      15.66337313       10
C       16.39462427       2.18433248      16.17822523        9
C       16.39462427       2.18433248      17.72278154        9
C       17.65574922       1.45622165      18.23763364        8
F       17.65574922       1.45622165      19.78218995        8
F       17.65574922       2.91244330      14.11881682       10
C       17.65574922       2.91244330      15.66337313       10
C       17.65574922       4.36866496      16.17822523        9
C       17.65574922       4.36866496      17.72278154        9
C       18.91687416       3.64055413      18.23763364        8
F       18.91687416       3.64055413      19.78218995        8
F       18.91687416       5.09677578      14.11881682       10
C       18.91687416       5.09677578      15.66337313       10
C       18.91687416       6.55299743      16.17822523        9
C       18.91687416       6.55299743      17.72278154        9
C       20.17799910       5.82488661      18.23763364        8
F       20.17799910       5.82488661      19.78218995        8
F       20.17799910       7.28110826      14.11881682       10
C       20.17799910       7.28110826      15.66337313       10
C       20.17799910       8.73732991      16.17822523        9
C       20.17799910       8.73732991      17.72278154        9
C       21.43912405       8.00921909      18.23763364        8
F       21.43912405       8.00921909      19.78218995        8
F       18.91687416       0.72811083      14.11881682       10
C       18.91687416       0.72811083      15.66337313       10
C       18.91687416       2.18433248      16.17822523        9
C       18.91687416       2.18433248      17.72278154        9
C       20.17799910       1.45622165      18.23763364        8
F       20.17799910       1.45622165      19.78218995        8
F       20.17799910       2.91244330      14.11881682       10
C       20.17799910       2.91244330      15.66337313       10
C       20.17799910       4.36866496      16.17822523        9
C       20.17799910       4.36866496      17.72278154        9
C       21.43912405       3.64055413      18.23763364        8
F       21.43912405       3.64055413      19.78218995        8
F       21.43912405       5.09677578      14.11881682       10
C       21.43912405       5.09677578      15.66337313       10
C       21.43912405       6.55299743      16.17822523        9
C       21.43912405       6.55299743      17.72278154        9
C       22.70024899       5.82488661      18.23763364        8
F       22.70024899       5.82488661      19.78218995        8
F       22.70024899       7.28110826      14.11881682       10
C       22.70024899       7.28110826      15.66337313       10
C       22.70024899       8.73732991      16.17822523        9
C       22.70024899       8.73732991      17.72278154        9
C       23.96137394       8.00921909      18.23763364        8
F       23.96137394       8.00921909      19.78218995        8
F       16.39462427       9.46544074      14.11881682       10
C       16.39462427       9.46544074      15.66337313       10
C       16.39462427      10.92166239      16.17822523        9
C       16.39462427      10.92166239      17.72278154        9
C       17.65574922      10.19355156      18.23763364        8
F       17.65574922      10.19355156      19.78218995        8
F       17.65574922      11.64977321      14.11881682       10
C       17.65574922      11.64977321      15.66337313       10
C       17.65574922      13.10599487      16.17822523        9
C       17.65574922      13.10599487      17.72278154        9
C       18.91687416      12.37788404      18.23763364        8
F       18.91687416      12.37788404      19.78218995        8
F       18.91687416      13.83410569      14.11881682       10
C       18.91687416      13.83410569      15.66337313       10
C       18.91687416      15.29032734      16.17822523        9
C       18.91687416      15.29032734      17.72278154        9
C       20.17799911      14.56221652      18.23763364        8
F       20.17799911      14.56221652      19.78218995        8
F       20.17799911      16.01843817      14.11881682       10
C       20.17799911      16.01843817      15.66337313       10
C       20.17799911      17.47465982      16.17822523        9
C       20.17799911      17.47465982      17.72278154        9
C       21.43912405      16.74654900      18.23763364        8
F       21.43912405      16.74654900      19.78218995        8
F       18.91687416       9.46544074      14.11881682       10
C       18.91687416       9.46544074      15.66337313       10
C       18.91687416      10.92166239      16.17822523        9
C       18.91687416      10.92166239      17.72278154        9
C       20.17799911      10.19355156      18.23763364        8
F       20.17799911      10.19355156      19.78218995        8
F       20.17799911      11.64977321      14.11881682       10
C       20.17799911      11.64977321      15.66337313       10
C       20.17799911      13.10599487      16.17822523        9
C       20.17799911      13.10599487      17.72278154        9
C       21.43912405      12.37788404      18.23763364        8
F       21.43912405      12.37788404      19.78218995        8
F       21.43912405      13.83410569      14.11881682       10
C       21.43912405      13.83410569      15.66337313       10
C       21.43912405      15.29032734      16.17822523        9
C       21.43912405      15.29032734      17.72278154        9
C       22.70024900      14.56221652      18.23763364        8
F       22.70024900      14.56221652      19.78218995        8
F       22.70024900      16.01843817      14.11881682       10
C       22.70024900      16.01843817      15.66337313       10
C       22.70024900      17.47465982      16.17822523        9
C       22.70024900      17.47465982      17.72278154        9
C       23.96137394      16.74654900      18.23763364        8
F       23.96137394      16.74654900      19.78218995        8
F       21.43912405       9.46544074      14.11881682       10
C       21.43912405       9.46544074      15.66337313       10
C       21.43912405      10.92166239      16.17822523        9
C       21.43912405      10.92166239      17.72278154        9
C       22.70024900      10.19355156      18.23763364        8
F       22.70024900      10.19355156      19.78218995        8
F       22.70024900      11.64977321      14.11881682       10
C       22.70024900      11.64977321      15.66337313       10
C       22.70024900      13.10599487      16.17822523        9
C       22.70024900      13.10599487      17.72278154        9
C       23.96137394      12.37788404      18.23763364        8
F       23.96137394      12.37788404      19.78218995        8
F       23.96137394      13.83410569      14.11881682       10
C       23.96137394      13.83410569      15.66337313       10
C       23.96137394      15.29032734      16.17822523        9
C       23.96137394      15.29032734      17.72278154        9
C       25.22249888      14.56221652      18.23763364        8
F       25.22249888      14.56221652      19.78218995        8
F       25.22249888      16.01843817      14.11881682       10
C       25.22249888      16.01843817      15.66337313       10
C       25.22249888      17.47465982      16.17822523        9
C       25.22249888      17.47465982      17.72278154        9
C       26.48362383      16.74654900      18.23763364        8
F       26.48362383      16.74654900      19.78218995        8
F       23.96137394       9.46544074      14.11881682       10
C       23.96137394       9.46544074      15.66337313       10
C       23.96137394      10.92166239      16.17822523        9
C       23.96137394      10.92166239      17.72278154        9
C       25.22249888      10.19355156      18.23763364        8
F       25.22249888      10.19355156      19.78218995        8
F       25.22249888      11.64977321      14.11881682       10
C       25.22249888      11.64977321      15.66337313       10
C       25.22249888      13.10599487      16.17822523        9
C       25.22249888      13.10599487      17.72278154        9
C       26.48362383      12.37788404      18.23763364        8
F       26.48362383      12.37788404      19.78218995        8
F       26.48362383      13.83410569      14.11881682       10
C       26.48362383      13.83410569      15.66337313       10
C       26.48362383      15.29032734      16.17822523        9
C       26.48362383      15.29032734      17.72278154        9
C       27.74474877      14.56221652      18.23763364        8
F       27.74474877      14.56221652      19.78218995        8
F       27.74474877      16.01843817      14.11881682       10
C       27.74474877      16.01843817      15.66337313       10
C       27.74474877      17.47465982      16.17822523        9
C       27.74474877      17.47465982      17.72278154        9
C       29.00587372      16.74654900      18.23763364        8
F       29.00587372      16.74654900      19.78218995        8
